LAMMPS (1 Oct 2006)
# 2d indenter simulation

dimension	2
boundary	p s p

atom_style	atomic
neighbor	0.3 bin
neigh_modify	delay 5

# create geometry

lattice		hex 0.9
region		box block 0 20 0 10 -0.25 0.25
create_box	2 box
Created box = (0 0 -0.283174) to (22.6539 19.6189 0.283174)
create_atoms	1
Created 420 atoms

mass		1 1.0
mass		2 1.0

# LJ potentials

pair_style	lj/cut 2.5
pair_coeff	* * 1.0 1.0 2.5

# define groups

region	        1 block INF INF INF 1.25 INF INF
group		lower region 1
60 atoms in group lower
group		mobile subtract all lower
360 atoms in group mobile
set		lower atom 2
  60 settings made

# initial velocities

temperature	new mobile full
velocity	mobile create 0.2 482748 temp new
fix		1 all nve
fix		2 lower setforce 0.0 0.0 0.0
fix		3 all temp/rescale 100 0.1 0.1 0.01 1.0

# indenter

fix		4 all indent 1000.0 sphere 10 13 0 5.0 vel 0.0 -0.02 0.0
fix		5 all enforce2d

# Run with indenter

timestep	0.003
thermo		1000
thermo_modify	temp new

dump		1 all atom 250 dump.indent
run		30000
Step Temp E_pair E_mol TotEng Press Volume
0          0.2   -3.1727576            0   -3.0020433   -1.6911656    251.71282
Averages over the last 16 of 31 rows, steps 15000 to 30000:
Temp E_pair E_mol TotEng Press Volume
0.12048 -3.01918 0 -2.91634 1.39055 261.887
Loop time of 16.0381 on 1 procs for 30000 steps with 420 atoms

Pair  time (%) = 12.7017 (79.1969)
Neigh time (%) = 0.325385 (2.02882)
Comm  time (%) = 0.319287 (1.9908)
Outpt time (%) = 0.343728 (2.14319)
Other time (%) = 2.34803 (14.6403)

# Run without indenter

unfix           4
run		30000
Step Temp E_pair E_mol TotEng Press Volume
30000   0.12108464   -2.9981686            0   -2.8948142    1.0650921    269.39617
Averages over the last 16 of 31 rows, steps 45000 to 60000:
Temp E_pair E_mol TotEng Press Volume
0.114979 -3.07367 0 -2.97553 -0.352122 275.386
Loop time of 15.4958 on 1 procs for 30000 steps with 420 atoms

Pair  time (%) = 12.5699 (81.1182)
Neigh time (%) = 0.328618 (2.12069)
Comm  time (%) = 0.33072 (2.13426)
Outpt time (%) = 0.25356 (1.63632)
Other time (%) = 2.01299 (12.9906)
