LAMMPS (1 Oct 2006)
# 2d LJ obstacle flow

dimension	2
boundary	p s p

atom_style	atomic
neighbor	0.3 bin
neigh_modify	delay 5

# create geometry

lattice		hex 0.7
region		box block 0 40 0 10 -0.25 0.25
create_box	3 box
Created box = (0 0 -0.321089) to (51.3743 22.2457 0.321089)
create_atoms	1
Created 840 atoms

mass		1 1.0
mass		2 1.0
mass		3 1.0

# LJ potentials

pair_style	lj/cut 1.12246
pair_coeff	* * 1.0 1.0 1.12246

# define groups

region	        1 block INF INF INF 1.25 INF INF
group		lower region 1
120 atoms in group lower
region		2 block INF INF 8.75 INF INF INF
group		upper region 2
120 atoms in group upper
group		boundary union lower upper
240 atoms in group boundary
group		flow subtract all boundary
600 atoms in group flow

set		lower atom 2
  120 settings made
set		upper atom 3
  120 settings made

# initial velocities

temperature     mobile flow full
velocity	flow create 1.0 482748 temp mobile
fix		1 all nve
fix		2 flow temp/rescale 200 1.0 1.0 0.02 1.0
fix_modify	2 temp mobile

# Poiselle flow

velocity	boundary set 0.0 0.0 0.0
fix		3 lower setforce 0.0 0.0 0.0
fix		4 upper setforce 0.0 NULL 0.0
fix		5 upper aveforce 0.0 -0.5 0.0
fix		6 flow addforce 1.0 0.0 0.0

# 2 obstacles

region		void1 sphere 10 4 0 3
delete_atoms	region void1
Deleted 36 atoms, new total = 804
region		void2 sphere 20 7 0 3
delete_atoms	region void2
Deleted 37 atoms, new total = 767

fix		7 flow indent 100 sphere 10 4 0 4
fix		8 flow indent 100 sphere 20 7 0 4
fix		9 all enforce2d

# Run

timestep	0.003
thermo		1000
thermo_modify	temp mobile

dump		1 all atom 100 dump.obstacle
#dump		1 all custom 100 dump.custom tag type x y z vx vy

run		25000
Step Temp E_pair E_mol TotEng Press Volume
0    1.0026027            0            0   0.68692013   0.47858472    733.92473
Averages over the last 13 of 26 rows, steps 13000 to 25000:
Temp E_pair E_mol TotEng Press Volume
1 -0.377528 0 0.307609 1.02395 932.434
Loop time of 4.53299 on 4 procs for 25000 steps with 767 atoms

Pair  time (%) = 0.355299 (7.83807)
Neigh time (%) = 0.1305 (2.87891)
Comm  time (%) = 1.82422 (40.2431)
Outpt time (%) = 0.366969 (8.09551)
Other time (%) = 1.856 (40.9444)
