LAMMPS (1 Oct 2006)
# 2d friction simulation

dimension	2
boundary	p s p

atom_style	atomic
neighbor	0.3 bin
neigh_modify	delay 5

# create geometry

lattice		hex 0.9
region		box block 0 50 0 22 -0.25 0.25
create_box	4 box
Created box = (0 0 -0.283174) to (56.6348 43.1615 0.283174)

mass		1 1.0
mass		2 1.0
mass		3 1.0
mass		4 1.0

# atom regions

region          lo-fixed block INF INF INF 1.1 INF INF
region          lo-slab block INF INF INF 7 INF INF
region          above-lo block INF INF INF 7 INF INF side out
region          hi-fixed block INF INF 20.9 INF INF INF
region          hi-slab block INF INF 15 INF INF INF
region          below-hi block INF INF 15 INF INF INF side out
region		lo-asperity sphere 32 7 0 8
region		hi-asperity sphere 18 15 0 8
region		lo-half-sphere intersect 2 lo-asperity above-lo
region		hi-half-sphere intersect 2 hi-asperity below-hi

# create 2 surfaces with asperities

create_atoms	1 lo-slab
Created 750 atoms
create_atoms	1 hi-slab
Created 750 atoms
create_atoms	2 lo-half-sphere
Created 112 atoms
create_atoms	3 hi-half-sphere
Created 112 atoms

# LJ potentials

pair_style	lj/cut 2.5
pair_coeff	* * 1.0 1.0 2.5

# define groups

group	        lo region lo-slab
750 atoms in group lo
group		lo type 2
862 atoms in group lo
group		hi region hi-slab
750 atoms in group hi
group		hi type 3
862 atoms in group hi
group		lo-fixed region lo-fixed
150 atoms in group lo-fixed
group		hi-fixed region hi-fixed
150 atoms in group hi-fixed
group		boundary union lo-fixed hi-fixed
300 atoms in group boundary
group		mobile subtract all boundary
1424 atoms in group mobile

set		lo-fixed atom 4
  150 settings made
set		hi-fixed atom 4
  150 settings made

# initial velocities

temperature     new mobile partial 0 1 0
velocity	mobile create 0.1 482748 temp new
velocity	hi set 1.0 0.0 0.0 sum yes

# fixes

fix		1 all nve
fix		2 boundary setforce 0.0 0.0 0.0
fix		3 mobile temp/rescale 200 0.1 0.1 0.02 1.0
fix_modify	3 temp new

# Run

timestep	0.0025
thermo		1000
thermo_modify	temp new

dump		1 all atom 100 dump.friction
run		20000
Step Temp E_pair E_mol TotEng Press Volume
0          0.1   -3.1333672            0   -3.0921549   -1.3466755    1384.4128
Averages over the last 11 of 21 rows, steps 10000 to 20000:
Temp E_pair E_mol TotEng Press Volume
0.107306 -3.04919 0 -3.00496 -0.38294 1384.41
Loop time of 8.99743 on 4 procs for 20000 steps with 1724 atoms

Pair  time (%) = 3.6897 (41.0084)
Neigh time (%) = 0.202473 (2.25034)
Comm  time (%) = 3.18145 (35.3595)
Outpt time (%) = 0.579402 (6.43964)
Other time (%) = 1.3444 (14.9421)
