LAMMPS (1 Oct 2006)
# 2d LJ crack simulation

dimension	2
boundary	s s p

atom_style	atomic
neighbor	0.3 bin
neigh_modify	delay 5

# create geometry

lattice		hex 0.93
region		box block 0 100 0 40 -0.25 0.25
create_box	5 box
Created box = (0 0 -0.278569) to (111.428 77.1994 0.278569)
create_atoms	1
Created 8141 atoms

mass		1 1.0
mass		2 1.0
mass		3 1.0
mass		4 1.0
mass		5 1.0

# LJ potentials

pair_style	lj/cut 2.5
pair_coeff	* * 1.0 1.0 2.5

# define groups

region	        1 block INF INF INF 1.25 INF INF
group		lower region 1
302 atoms in group lower
region		2 block INF INF 38.75 INF INF INF
group		upper region 2
302 atoms in group upper
group		boundary union lower upper
604 atoms in group boundary
group		mobile subtract all boundary
7537 atoms in group mobile

region		leftupper block INF 20 20 INF INF INF
region		leftlower block INF 20 INF 20 INF INF
group		leftupper region leftupper
841 atoms in group leftupper
group		leftlower region leftlower
841 atoms in group leftlower

set		leftupper atom 2
  841 settings made
set		leftlower atom 3
  841 settings made
set		lower atom 4
  302 settings made
set		upper atom 5
  302 settings made

# initial velocities

temperature	new mobile full
velocity	mobile create 0.01 887723 temp new
velocity	upper set 0.0 0.02 0.0
velocity	mobile ramp vy 0.0 0.02 y 1.25 38.75 sum yes

# fixes

fix		1 all nve
fix		2 boundary setforce NULL 0.0 0.0

# run

timestep	0.003
thermo		1000
thermo_modify	temp new

neigh_modify	exclude type 2 3
dump		1 all atom 250 dump.crack
run		50000
Step Temp E_pair E_mol TotEng Press Volume
0  0.010233422   -3.2595015            0   -3.2500292  -0.10147524    4792.6107
Averages over the last 26 of 51 rows, steps 25000 to 50000:
Temp E_pair E_mol TotEng Press Volume
0.0173954 -3.19541 0 -3.17931 -0.675553 5059.92
Loop time of 512.873 on 1 procs for 50000 steps with 8141 atoms

Pair  time (%) = 421.19 (82.1237)
Neigh time (%) = 6.63742 (1.29416)
Comm  time (%) = 0.619009 (0.120694)
Outpt time (%) = 7.54941 (1.47198)
Other time (%) = 76.8767 (14.9894)
