LAMMPS (1 Oct 2006)
# 3d metal shear simulation

units		metal
boundary	s s p

atom_style	atomic
lattice		fcc 3.52
region		box block 0 16.0 0 10.0 0 2.828427
create_box	3 box
Created box = (0 0 0) to (56.32 35.2 9.95606)

orient		x 1 0 0
orient		y 0 1 1
orient		z 0 -1 1
origin		0.5 0 0
create_atoms	1
Created 1912 atoms

pair_style	eam
pair_coeff	* * niu3.eam

neighbor	0.3 bin
neigh_modify	delay 5

region		lower block INF INF INF 1.4 INF INF
region		upper block INF INF 8.6 INF INF INF
group		lower region lower
264 atoms in group lower
group		upper region upper
264 atoms in group upper
group		boundary union lower upper
528 atoms in group boundary
group		mobile subtract all boundary
1384 atoms in group mobile

set		lower atom 2
  264 settings made
set		upper atom 3
  264 settings made

# void

region		void cylinder z 8 5 2.5 INF INF
delete_atoms	region void
Deleted 204 atoms, new total = 1708

# temp controllers

temperature	new3d mobile full
temperature	new2d mobile partial 0 1 1

# equilibrate

velocity	mobile create 300.0 5812775 temp new3d
fix		1 all nve
fix		2 boundary setforce 0.0 0.0 0.0

fix		3 mobile temp/rescale 10 300.0 300.0 10.0 1.0
fix_modify	3 temp new3d

thermo		25
thermo_modify	temp new3d

timestep	0.001
run		100
Step Temp E_pair E_mol TotEng Press Volume
0          300   -7358.6159            0   -7312.8984   -9603.6477    19539.346
Loop time of 0.178373 on 4 procs for 100 steps with 1708 atoms

Pair  time (%) = 0.147011 (82.4179)
Neigh time (%) = 0.00538623 (3.01965)
Comm  time (%) = 0.0185187 (10.382)
Outpt time (%) = 0.000659287 (0.369611)
Other time (%) = 0.00679743 (3.8108)

# shear

velocity	upper set 1.0 0 0
velocity	mobile ramp vx 0.0 1.0 y 1.4 8.6 sum yes

unfix		3
fix		3 mobile temp/rescale 10 300.0 300.0 10.0 1.0
fix_modify	3 temp new2d

dump		1 all atom 10 dump.shear
thermo		100
thermo_modify	temp new2d

reset_timestep	0
run		3000
Step Temp E_pair E_mol TotEng Press Volume
0     303.6848    -7300.054            0   -7269.2144    396.60777    19807.514
Averages over the last 16 of 31 rows, steps 1500 to 3000:
Temp E_pair E_mol TotEng Press Volume
301.1 -7271.91 0 -7241.33 -15292.3 22279.6
Loop time of 6.74849 on 4 procs for 3000 steps with 1708 atoms

Pair  time (%) = 4.44794 (65.9102)
Neigh time (%) = 0.228236 (3.38204)
Comm  time (%) = 0.691189 (10.2421)
Outpt time (%) = 0.861094 (12.7598)
Other time (%) = 0.520027 (7.70582)
