LAMMPS (1 Oct 2006)
# 3d metal shear simulation

units		metal
boundary	s s p

atom_style	atomic
lattice		fcc 3.52
region		box block 0 16.0 0 10.0 0 2.828427
create_box	3 box
Created box = (0 0 0) to (56.32 35.2 9.95606)

orient		x 1 0 0
orient		y 0 1 1
orient		z 0 -1 1
origin		0.5 0 0
create_atoms	1
Created 1912 atoms

pair_style	eam
pair_coeff	* * niu3.eam

neighbor	0.3 bin
neigh_modify	delay 5

region		lower block INF INF INF 1.4 INF INF
region		upper block INF INF 8.6 INF INF INF
group		lower region lower
264 atoms in group lower
group		upper region upper
264 atoms in group upper
group		boundary union lower upper
528 atoms in group boundary
group		mobile subtract all boundary
1384 atoms in group mobile

set		lower atom 2
  264 settings made
set		upper atom 3
  264 settings made

# void

#region		void cylinder z 8 5 2.5 INF INF
#delete_atoms	region void

# temp controllers

temperature	new3d mobile full
temperature	new2d mobile partial 0 1 1

# equilibrate

velocity	mobile create 300.0 5812775 temp new3d
fix		1 all nve
fix		2 boundary setforce 0.0 0.0 0.0

fix		3 mobile temp/rescale 10 300.0 300.0 10.0 1.0
fix_modify	3 temp new3d

thermo		25
thermo_modify	temp new3d

timestep	0.001
run		100
Step Temp E_pair E_mol TotEng Press Volume
0          300   -8317.4367            0   -8263.8088   -7102.8898    19539.346
Loop time of 1.32784 on 1 procs for 100 steps with 1912 atoms

Pair  time (%) = 1.24155 (93.5014)
Neigh time (%) = 0.037302 (2.80923)
Comm  time (%) = 0.013245 (0.997488)
Outpt time (%) = 0.000552 (0.0415714)
Other time (%) = 0.035192 (2.65033)

# shear

velocity	upper set 1.0 0 0
velocity	mobile ramp vx 0.0 1.0 y 1.4 8.6 sum yes

unfix		3
fix		3 mobile temp/rescale 10 300.0 300.0 10.0 1.0
fix_modify	3 temp new2d

dump		1 all atom 10 dump.shear
thermo		100
thermo_modify	temp new2d

reset_timestep	0
run		3000
Step Temp E_pair E_mol TotEng Press Volume
0    298.53461   -8245.8192            0   -8210.2548    8058.7181    19778.392
Averages over the last 16 of 31 rows, steps 1500 to 3000:
Temp E_pair E_mol TotEng Press Volume
302.386 -8151.09 0 -8115.07 7213.57 22279.4
Loop time of 42.2848 on 1 procs for 3000 steps with 1912 atoms

Pair  time (%) = 36.2138 (85.6426)
Neigh time (%) = 1.93158 (4.56802)
Comm  time (%) = 0.410137 (0.96994)
Outpt time (%) = 2.71704 (6.42558)
Other time (%) = 1.01224 (2.39386)
